* SMLS14BET LED model
* Model Generated by ROHM
* All Rights Reserved
* Commercial Use or
* Resale Restricted
* Date: 2018/09/28
.MODEL SMLS14BET D
+ IS=405.89E-24
+ N=2.4475
+ RS=15.483
+ IKF=.98529
+ EG=2.6380
+ CJO=38.500E-12
+ M=.20189
+ VJ=.87273
